Version 4
SHEET 1 1532 680
WIRE -96 80 -112 80
WIRE 16 80 -16 80
WIRE 400 80 16 80
WIRE 704 80 400 80
WIRE 1456 80 704 80
WIRE 16 176 16 80
WIRE 128 176 16 176
WIRE 384 176 368 176
WIRE 400 176 400 80
WIRE 416 176 400 176
WIRE 688 176 656 176
WIRE 704 176 704 80
WIRE 736 176 704 176
WIRE 1040 176 976 176
WIRE -112 208 -112 80
WIRE 1040 240 1040 176
WIRE 1040 240 752 240
WIRE 1296 288 1056 288
WIRE 1456 304 1456 80
WIRE 752 336 752 240
WIRE 784 336 752 336
WIRE 1296 352 1296 288
WIRE 1296 352 1264 352
WIRE 688 368 688 176
WIRE 784 368 688 368
WIRE 1056 368 1056 288
WIRE 1056 368 1008 368
WIRE 1408 384 1264 384
WIRE 384 400 384 176
WIRE 784 400 384 400
WIRE 1456 480 1456 400
WIRE 1456 624 1456 560
FLAG -112 208 0
FLAG 1456 624 0
SYMBOL voltage 0 80 R90
WINDOW 0 -32 56 VBottom 2
WINDOW 3 32 56 VTop 2
SYMATTR InstName V1
SYMATTR Value 60
SYMBOL UVP 240 176 R0
SYMATTR InstName X1
SYMBOL OVP 528 176 R0
SYMATTR InstName X2
SYMBOL Control 896 368 R0
SYMATTR InstName X3
SYMBOL GateDriver 1200 368 R0
SYMATTR InstName X4
SYMBOL nmos 1408 304 R0
SYMATTR InstName M1
SYMBOL res 1440 464 R0
SYMATTR InstName R1
SYMATTR Value 1k
SYMBOL OCP 848 176 R0
SYMATTR InstName X5
TEXT 96 512 Left 2 !.tran 1
